Check Keywords "Warn"

Header :: Mesh DB "." "square"

Constants
  alkali line width = Real 1
    beta = Real 1
End

Simulation
  Max Output Level = 5
  Coordinate System = Cartesian
  Simulation Type = Steady
  Output Intervals(1) = 1
  Steady State Max Iterations = 20
  Post File   = "case.vtu"
End
!#print("this is lua")

Body 1
  Equation = 1
  Material = 1
  Initial Condition = 1
End

Material 1
  alkali density = Real 3
  spin destrution rate = Real 3


  laser direction 1 = Real 1
  laser direction 2 = Real 0  
End

Solver 1
  Equation = "OPSolver"
  Variable = "optrate"
  Procedure = "OPSolver" "OPSolver"
  Element = "p:2"
  Linear System Solver = Direct
  Steady State Convergence Tolerance = 1e-9
  Nonlinear System Max Iterations = 20
  Nonlinear System Convergence Tolerance = 1e-9
End

Equation 1
  Compute Alkali Density = LOGICAL False
  Compute Spin Destruction Rate = LOGICAL False	
  Compute Beta = LOGICAL False
   Active Solvers(1) = 1
End

Boundary Condition 1
  Target Boundaries(1) = 1
  optrate = Real 1
End

Initial Condition 1
  optrate = Real 1
End

!Solver 1 :: Reference Norm = Real 1.0578593
!Solver 1 :: Reference Norm Tolerance = Real 1.0E-5
!RUN
