Check Keywords "Warn"

Header :: Mesh DB "." "square"

Constants
  alkali wavelength = Real 800.0D-9
  alkali frequency width = Real 126.65D9
  alkali temperature = Real 433.15

  laser wavelength = Real 800.0D-9
  laser line width = Real 2.0D-9
  beta = Real 1
  Compute Beta = LOGICAL False
End

Simulation
  Max Output Level = 5
  Coordinate System = Cartesian
  Simulation Type = Steady
  Output Intervals(1) = 1
  Steady State Max Iterations = 20
  Post File   = "case.vtu"
End

Body 1
  Equation = 1
  Material = 1
  Initial Condition = 1
End

Material 1
  !alkali density = Real MATC
  alkali density = Variable Concentration; Real MATC "tx"  


  !spin destruction rate = Real 3
  !spin destruction rate = Real 2.1D4
  spin destruction rate = Variable Concentration, Temperature, Pressure,
  Real Procedure "OPSolver" "CalculateSpinDestructionRate"

  alkali-alkali spin destruction rate = Real 3.9e-16

  xe spin destruction rate = Real 6e-17

  Helium Spin Destruction Term Included= LOGICAL False
  Nitrogen Spin Destruction Term Included = LOGICAL True
  Xenon Spin Destruction Term Included = LOGICAL True
  vander Wall Spin Destruction Term Included = LOGICAL True

  xe fraction = Real 0.5
  n2 fraction = Real 0.5
  he fraction = Real 0

  laser direction 1 = Real 1
  laser direction 2 = Real 0 

  convert density = LOGICAL False
  Density = 1
  Concentration Diffusivity = Real 1.0e-3 
End

Solver 1
  Equation = "OPSolver"
  Variable = "optrate"
  Procedure = "OPSolver" "OPSolver"
  Element = "p:2"
  Linear System Solver = Direct
  Steady State Convergence Tolerance = 1e-9
  Nonlinear System Max Iterations = 20
  Nonlinear System Convergence Tolerance = 1e-9

End

Solver 2
Equation = Advection Diffusion
  Variable = Concentration
  Variable DOFs = 1
  Procedure = "AdvectionDiffusion" "AdvectionDiffusionSolver"
  Exec Solver = Never
End

Solver 3
  Equation = Navier-Stokes
  Flow Model = Full
  Procedure = "FlowSolve" "FlowSolver"
  Variable = Flow Solution[Velocity:3 Pressure:1]
  Exec Solver = Never
End

Solver 4
  Equation = Heat Equation
  Variable = Temperature
  Steady State Convergence Tolerance = 1e-4
  Exec Solver = Never
End

Solver 5
  Exec Solver = Always
  Procedure = File "SaveData" "SaveMaterials"
  Parameter 1 = String spin destruction rate
End

Equation 1
  Active Solvers(5) = 1 2 3 4 5
End

Boundary Condition 1
  Target Boundaries(1) = 1
  !optrate = Real 1
  optrate = Real 2.4e5

  Concentration = Variable optrate 
  Procedure "OPSolver" "calculaterbmumdensitycm"

  Pressure = 5e5

  Temperature = 430
End

Initial Condition 1
  optrate = Real 1
  !optrate = Real 2.4e5
  Concentration = Variable optrate 
  Procedure "OPSolver" "calculaterbmumdensitycm"

  Pressure = 5e5

  Temperature = 430
End

!Solver 1 :: Reference Norm = Real 1.0578593
!Solver 1 :: Reference Norm Tolerance = Real 1.0E-5
!RUN
